306 Power Project -kimi k3-v4/Phase6/results/v4_gsut_hv_3ph/fault_summary.csv
Fault_location,Fault_branch_sensor,Phase,Fault_enabled,Initial_window_start_s,Initial_window_end_exclusive_s,Initial_samples,Pre_event_current_RMS_A,Initial_current_waveform_RMS_A,Initial_peak_abs_current_A,Initial_phase_voltage_waveform_RMS_V,Full_window_fundamental_current_RMS_A,Fundamental_window_start_s,Fundamental_window_end_exclusive_s,Fundamental_samples,Initial_window_status,Fundamental_window_status
GSUT_HV,faultHV,A,1,0.15,0.17,100,0.000132833730096076,67597.3500852371,113806.864731305,774.153947795939,46099.8470415162,0.171,0.21,39,full_initial_cycle_measured,full_post_fault_DFT_windows_measured
GSUT_HV,faultHV,B,1,0.15,0.17,100,0.000132833674709327,51873.9100848539,86242.0498871066,16462.3133376738,45720.7975122126,0.171,0.21,39,full_initial_cycle_measured,full_post_fault_DFT_windows_measured
GSUT_HV,faultHV,C,1,0.15,0.17,100,0.000132833682241819,51888.5725155009,91595.8562722724,16085.1843411707,45798.1411255807,0.171,0.21,39,full_initial_cycle_measured,full_post_fault_DFT_windows_measured
